LTspice 24.0.12 for Windows
Circuit: * D:\Personal\Moataz Folder\Design Projects\LTspice\Power_Electronics_Projects\AsyncBuck_12V_to_3.3V_3A\LTspice\AsyncBuck_12V_to_3.3V_3A.asc
Start Time: Sun Oct  5 20:40:40 2025
solver = Normal
Maximum thread count: 4
tnom = 27
temp = 27
method = modified trap
cin: Increased Cpar to 1e-10
Direct Newton iteration for .op point succeeded.

vout_avg: AVG(v(out+)-v(out-))=2.87605 FROM 0.002 TO 0.005
vout_min: MIN(v(out+)-v(out-))=2.86944 FROM 0.002 TO 0.005
vout_max: MAX(v(out+)-v(out-))=2.88135 FROM 0.002 TO 0.005
vout_ripple: vout_max - vout_min=0.0119014
il_avg: AVG(i(l1))=2.61461 FROM 0.002 TO 0.005
il_min: MIN(i(l1))=2.23873 FROM 0.002 TO 0.005
il_max: MAX(i(l1))=2.99151 FROM 0.002 TO 0.005
il_ripple: il_max - il_min=0.752784
pout: AVG((v(out+)-v(out-))*i(rload))=7.51972 FROM 0.002 TO 0.005
pin: AVG(v(in)*i(vin))=-8.67845 FROM 0.002 TO 0.005
eff: pout/(-pin)*100=86.6482

Total elapsed time: 8.996 seconds.

